Circuit: * D:\Users\gizmo\Desktop\LME49600ìdåπ\Headphone Amp input AC coupling.asc

.step rvol=1
.step rvol=1000
.step rvol=5000
.step rvol=9900

Date: Mon Jul 18 22:58:57 2016
Total elapsed time: 0.029 seconds.

tnom = 27
temp = 27
method = trap
totiter = 0
traniter = 0
tranpoints = 0
accept = 0
rejected = 0
matrix size = 4
fillins = 0
solver = Normal

